
---------- Begin Simulation Statistics ----------
final_tick                                   87785000                       # Number of ticks from beginning of simulation (restored from checkpoints and never reset)
host_inst_rate                                 605414                       # Simulator instruction rate (inst/s)
host_mem_usage                                 683364                       # Number of bytes of host memory used
host_op_rate                                   692408                       # Simulator op (including micro ops) rate (op/s)
host_seconds                                     0.02                       # Real time elapsed on the host
host_tick_rate                             4073575970                       # Simulator tick rate (ticks/s)
sim_freq                                 1000000000000                       # Frequency of simulated ticks
sim_insts                                       12974                       # Number of instructions simulated
sim_ops                                         14910                       # Number of ops (including micro ops) simulated
sim_seconds                                  0.000088                       # Number of seconds simulated
sim_ticks                                    87785000                       # Number of ticks simulated
system.cpu.Branches                              2554                       # Number of branches fetched
system.cpu.committedInsts                       12974                       # Number of instructions committed
system.cpu.committedOps                         14910                       # Number of ops (including micro ops) committed
system.cpu.dtb.accesses                             0                       # DTB accesses
system.cpu.dtb.align_faults                         0                       # Number of TLB faults due to alignment restrictions
system.cpu.dtb.domain_faults                        0                       # Number of TLB faults due to domain restrictions
system.cpu.dtb.flush_entries                        0                       # Number of entries that have been flushed from TLB
system.cpu.dtb.flush_tlb                            0                       # Number of times complete TLB was flushed
system.cpu.dtb.flush_tlb_asid                       0                       # Number of times TLB was flushed by ASID
system.cpu.dtb.flush_tlb_mva                        0                       # Number of times TLB was flushed by MVA
system.cpu.dtb.flush_tlb_mva_asid                   0                       # Number of times TLB was flushed by MVA & ASID
system.cpu.dtb.hits                                 0                       # DTB hits
system.cpu.dtb.inst_accesses                        0                       # ITB inst accesses
system.cpu.dtb.inst_hits                            0                       # ITB inst hits
system.cpu.dtb.inst_misses                          0                       # ITB inst misses
system.cpu.dtb.misses                               0                       # DTB misses
system.cpu.dtb.perms_faults                         0                       # Number of TLB faults due to permissions restrictions
system.cpu.dtb.prefetch_faults                      0                       # Number of TLB faults due to prefetch
system.cpu.dtb.read_accesses                        0                       # DTB read accesses
system.cpu.dtb.read_hits                            0                       # DTB read hits
system.cpu.dtb.read_misses                          0                       # DTB read misses
system.cpu.dtb.stage2_mmu.stage2_tlb.accesses            0                       # DTB accesses
system.cpu.dtb.stage2_mmu.stage2_tlb.align_faults            0                       # Number of TLB faults due to alignment restrictions
system.cpu.dtb.stage2_mmu.stage2_tlb.domain_faults            0                       # Number of TLB faults due to domain restrictions
system.cpu.dtb.stage2_mmu.stage2_tlb.flush_entries            0                       # Number of entries that have been flushed from TLB
system.cpu.dtb.stage2_mmu.stage2_tlb.flush_tlb            0                       # Number of times complete TLB was flushed
system.cpu.dtb.stage2_mmu.stage2_tlb.flush_tlb_asid            0                       # Number of times TLB was flushed by ASID
system.cpu.dtb.stage2_mmu.stage2_tlb.flush_tlb_mva            0                       # Number of times TLB was flushed by MVA
system.cpu.dtb.stage2_mmu.stage2_tlb.flush_tlb_mva_asid            0                       # Number of times TLB was flushed by MVA & ASID
system.cpu.dtb.stage2_mmu.stage2_tlb.hits            0                       # DTB hits
system.cpu.dtb.stage2_mmu.stage2_tlb.inst_accesses            0                       # ITB inst accesses
system.cpu.dtb.stage2_mmu.stage2_tlb.inst_hits            0                       # ITB inst hits
system.cpu.dtb.stage2_mmu.stage2_tlb.inst_misses            0                       # ITB inst misses
system.cpu.dtb.stage2_mmu.stage2_tlb.misses            0                       # DTB misses
system.cpu.dtb.stage2_mmu.stage2_tlb.perms_faults            0                       # Number of TLB faults due to permissions restrictions
system.cpu.dtb.stage2_mmu.stage2_tlb.prefetch_faults            0                       # Number of TLB faults due to prefetch
system.cpu.dtb.stage2_mmu.stage2_tlb.read_accesses            0                       # DTB read accesses
system.cpu.dtb.stage2_mmu.stage2_tlb.read_hits            0                       # DTB read hits
system.cpu.dtb.stage2_mmu.stage2_tlb.read_misses            0                       # DTB read misses
system.cpu.dtb.stage2_mmu.stage2_tlb.walker.walkRequestOrigin_Requested::Data            0                       # Table walker requests started/completed, data/inst
system.cpu.dtb.stage2_mmu.stage2_tlb.walker.walkRequestOrigin_Requested::Inst            0                       # Table walker requests started/completed, data/inst
system.cpu.dtb.stage2_mmu.stage2_tlb.walker.walkRequestOrigin_Requested::total            0                       # Table walker requests started/completed, data/inst
system.cpu.dtb.stage2_mmu.stage2_tlb.walker.walkRequestOrigin_Completed::Data            0                       # Table walker requests started/completed, data/inst
system.cpu.dtb.stage2_mmu.stage2_tlb.walker.walkRequestOrigin_Completed::Inst            0                       # Table walker requests started/completed, data/inst
system.cpu.dtb.stage2_mmu.stage2_tlb.walker.walkRequestOrigin_Completed::total            0                       # Table walker requests started/completed, data/inst
system.cpu.dtb.stage2_mmu.stage2_tlb.walker.walkRequestOrigin::total            0                       # Table walker requests started/completed, data/inst
system.cpu.dtb.stage2_mmu.stage2_tlb.walker.walks            0                       # Table walker walks requested
system.cpu.dtb.stage2_mmu.stage2_tlb.write_accesses            0                       # DTB write accesses
system.cpu.dtb.stage2_mmu.stage2_tlb.write_hits            0                       # DTB write hits
system.cpu.dtb.stage2_mmu.stage2_tlb.write_misses            0                       # DTB write misses
system.cpu.dtb.walker.walkRequestOrigin_Requested::Data            0                       # Table walker requests started/completed, data/inst
system.cpu.dtb.walker.walkRequestOrigin_Requested::Inst            0                       # Table walker requests started/completed, data/inst
system.cpu.dtb.walker.walkRequestOrigin_Requested::total            0                       # Table walker requests started/completed, data/inst
system.cpu.dtb.walker.walkRequestOrigin_Completed::Data            0                       # Table walker requests started/completed, data/inst
system.cpu.dtb.walker.walkRequestOrigin_Completed::Inst            0                       # Table walker requests started/completed, data/inst
system.cpu.dtb.walker.walkRequestOrigin_Completed::total            0                       # Table walker requests started/completed, data/inst
system.cpu.dtb.walker.walkRequestOrigin::total            0                       # Table walker requests started/completed, data/inst
system.cpu.dtb.walker.walks                         0                       # Table walker walks requested
system.cpu.dtb.write_accesses                       0                       # DTB write accesses
system.cpu.dtb.write_hits                           0                       # DTB write hits
system.cpu.dtb.write_misses                         0                       # DTB write misses
system.cpu.idle_fraction                     0.000000                       # Percentage of idle cycles
system.cpu.itb.accesses                             0                       # DTB accesses
system.cpu.itb.align_faults                         0                       # Number of TLB faults due to alignment restrictions
system.cpu.itb.domain_faults                        0                       # Number of TLB faults due to domain restrictions
system.cpu.itb.flush_entries                        0                       # Number of entries that have been flushed from TLB
system.cpu.itb.flush_tlb                            0                       # Number of times complete TLB was flushed
system.cpu.itb.flush_tlb_asid                       0                       # Number of times TLB was flushed by ASID
system.cpu.itb.flush_tlb_mva                        0                       # Number of times TLB was flushed by MVA
system.cpu.itb.flush_tlb_mva_asid                   0                       # Number of times TLB was flushed by MVA & ASID
system.cpu.itb.hits                                 0                       # DTB hits
system.cpu.itb.inst_accesses                        0                       # ITB inst accesses
system.cpu.itb.inst_hits                            0                       # ITB inst hits
system.cpu.itb.inst_misses                          0                       # ITB inst misses
system.cpu.itb.misses                               0                       # DTB misses
system.cpu.itb.perms_faults                         0                       # Number of TLB faults due to permissions restrictions
system.cpu.itb.prefetch_faults                      0                       # Number of TLB faults due to prefetch
system.cpu.itb.read_accesses                        0                       # DTB read accesses
system.cpu.itb.read_hits                            0                       # DTB read hits
system.cpu.itb.read_misses                          0                       # DTB read misses
system.cpu.itb.stage2_mmu.stage2_tlb.accesses            0                       # DTB accesses
system.cpu.itb.stage2_mmu.stage2_tlb.align_faults            0                       # Number of TLB faults due to alignment restrictions
system.cpu.itb.stage2_mmu.stage2_tlb.domain_faults            0                       # Number of TLB faults due to domain restrictions
system.cpu.itb.stage2_mmu.stage2_tlb.flush_entries            0                       # Number of entries that have been flushed from TLB
system.cpu.itb.stage2_mmu.stage2_tlb.flush_tlb            0                       # Number of times complete TLB was flushed
system.cpu.itb.stage2_mmu.stage2_tlb.flush_tlb_asid            0                       # Number of times TLB was flushed by ASID
system.cpu.itb.stage2_mmu.stage2_tlb.flush_tlb_mva            0                       # Number of times TLB was flushed by MVA
system.cpu.itb.stage2_mmu.stage2_tlb.flush_tlb_mva_asid            0                       # Number of times TLB was flushed by MVA & ASID
system.cpu.itb.stage2_mmu.stage2_tlb.hits            0                       # DTB hits
system.cpu.itb.stage2_mmu.stage2_tlb.inst_accesses            0                       # ITB inst accesses
system.cpu.itb.stage2_mmu.stage2_tlb.inst_hits            0                       # ITB inst hits
system.cpu.itb.stage2_mmu.stage2_tlb.inst_misses            0                       # ITB inst misses
system.cpu.itb.stage2_mmu.stage2_tlb.misses            0                       # DTB misses
system.cpu.itb.stage2_mmu.stage2_tlb.perms_faults            0                       # Number of TLB faults due to permissions restrictions
system.cpu.itb.stage2_mmu.stage2_tlb.prefetch_faults            0                       # Number of TLB faults due to prefetch
system.cpu.itb.stage2_mmu.stage2_tlb.read_accesses            0                       # DTB read accesses
system.cpu.itb.stage2_mmu.stage2_tlb.read_hits            0                       # DTB read hits
system.cpu.itb.stage2_mmu.stage2_tlb.read_misses            0                       # DTB read misses
system.cpu.itb.stage2_mmu.stage2_tlb.walker.walkRequestOrigin_Requested::Data            0                       # Table walker requests started/completed, data/inst
system.cpu.itb.stage2_mmu.stage2_tlb.walker.walkRequestOrigin_Requested::Inst            0                       # Table walker requests started/completed, data/inst
system.cpu.itb.stage2_mmu.stage2_tlb.walker.walkRequestOrigin_Requested::total            0                       # Table walker requests started/completed, data/inst
system.cpu.itb.stage2_mmu.stage2_tlb.walker.walkRequestOrigin_Completed::Data            0                       # Table walker requests started/completed, data/inst
system.cpu.itb.stage2_mmu.stage2_tlb.walker.walkRequestOrigin_Completed::Inst            0                       # Table walker requests started/completed, data/inst
system.cpu.itb.stage2_mmu.stage2_tlb.walker.walkRequestOrigin_Completed::total            0                       # Table walker requests started/completed, data/inst
system.cpu.itb.stage2_mmu.stage2_tlb.walker.walkRequestOrigin::total            0                       # Table walker requests started/completed, data/inst
system.cpu.itb.stage2_mmu.stage2_tlb.walker.walks            0                       # Table walker walks requested
system.cpu.itb.stage2_mmu.stage2_tlb.write_accesses            0                       # DTB write accesses
system.cpu.itb.stage2_mmu.stage2_tlb.write_hits            0                       # DTB write hits
system.cpu.itb.stage2_mmu.stage2_tlb.write_misses            0                       # DTB write misses
system.cpu.itb.walker.walkRequestOrigin_Requested::Data            0                       # Table walker requests started/completed, data/inst
system.cpu.itb.walker.walkRequestOrigin_Requested::Inst            0                       # Table walker requests started/completed, data/inst
system.cpu.itb.walker.walkRequestOrigin_Requested::total            0                       # Table walker requests started/completed, data/inst
system.cpu.itb.walker.walkRequestOrigin_Completed::Data            0                       # Table walker requests started/completed, data/inst
system.cpu.itb.walker.walkRequestOrigin_Completed::Inst            0                       # Table walker requests started/completed, data/inst
system.cpu.itb.walker.walkRequestOrigin_Completed::total            0                       # Table walker requests started/completed, data/inst
system.cpu.itb.walker.walkRequestOrigin::total            0                       # Table walker requests started/completed, data/inst
system.cpu.itb.walker.walks                         0                       # Table walker walks requested
system.cpu.itb.write_accesses                       0                       # DTB write accesses
system.cpu.itb.write_hits                           0                       # DTB write hits
system.cpu.itb.write_misses                         0                       # DTB write misses
system.cpu.not_idle_fraction                 1.000000                       # Percentage of non-idle cycles
system.cpu.numCycles                            87785                       # number of cpu cycles simulated
system.cpu.numWorkItemsCompleted                    0                       # number of work items this cpu completed
system.cpu.numWorkItemsStarted                      0                       # number of work items this cpu started
system.cpu.num_busy_cycles               87784.999000                       # Number of busy cycles
system.cpu.num_cc_register_reads                51453                       # number of times the CC registers were read
system.cpu.num_cc_register_writes                8103                       # number of times the CC registers were written
system.cpu.num_conditional_control_insts         1785                       # number of instructions that are conditional controls
system.cpu.num_fp_alu_accesses                      0                       # Number of float alu accesses
system.cpu.num_fp_insts                             0                       # number of float instructions
system.cpu.num_fp_register_reads                    0                       # number of times the floating registers were read
system.cpu.num_fp_register_writes                   0                       # number of times the floating registers were written
system.cpu.num_func_calls                         492                       # number of times a function call or return occured
system.cpu.num_idle_cycles                   0.001000                       # Number of idle cycles
system.cpu.num_int_alu_accesses                 13050                       # Number of integer alu accesses
system.cpu.num_int_insts                        13050                       # number of integer instructions
system.cpu.num_int_register_reads               21162                       # number of times the integer registers were read
system.cpu.num_int_register_writes               8879                       # number of times the integer registers were written
system.cpu.num_load_insts                        2304                       # Number of load instructions
system.cpu.num_mem_refs                          4689                       # number of memory refs
system.cpu.num_store_insts                       2385                       # Number of store instructions
system.cpu.num_vec_alu_accesses                     0                       # Number of vector alu accesses
system.cpu.num_vec_insts                            0                       # number of vector instructions
system.cpu.num_vec_register_reads                  40                       # number of times the vector registers were read
system.cpu.num_vec_register_writes                 13                       # number of times the vector registers were written
system.cpu.op_class::No_OpClass                     0      0.00%      0.00% # Class of executed instruction
system.cpu.op_class::IntAlu                     10306     68.32%     68.32% # Class of executed instruction
system.cpu.op_class::IntMult                       69      0.46%     68.78% # Class of executed instruction
system.cpu.op_class::IntDiv                         0      0.00%     68.78% # Class of executed instruction
system.cpu.op_class::FloatAdd                       0      0.00%     68.78% # Class of executed instruction
system.cpu.op_class::FloatCmp                       0      0.00%     68.78% # Class of executed instruction
system.cpu.op_class::FloatCvt                       0      0.00%     68.78% # Class of executed instruction
system.cpu.op_class::FloatMult                      0      0.00%     68.78% # Class of executed instruction
system.cpu.op_class::FloatMultAcc                   0      0.00%     68.78% # Class of executed instruction
system.cpu.op_class::FloatDiv                       0      0.00%     68.78% # Class of executed instruction
system.cpu.op_class::FloatMisc                      0      0.00%     68.78% # Class of executed instruction
system.cpu.op_class::FloatSqrt                      0      0.00%     68.78% # Class of executed instruction
system.cpu.op_class::SimdAdd                        0      0.00%     68.78% # Class of executed instruction
system.cpu.op_class::SimdAddAcc                     0      0.00%     68.78% # Class of executed instruction
system.cpu.op_class::SimdAlu                        0      0.00%     68.78% # Class of executed instruction
system.cpu.op_class::SimdCmp                        0      0.00%     68.78% # Class of executed instruction
system.cpu.op_class::SimdCvt                        0      0.00%     68.78% # Class of executed instruction
system.cpu.op_class::SimdMisc                       0      0.00%     68.78% # Class of executed instruction
system.cpu.op_class::SimdMult                       0      0.00%     68.78% # Class of executed instruction
system.cpu.op_class::SimdMultAcc                    0      0.00%     68.78% # Class of executed instruction
system.cpu.op_class::SimdShift                      0      0.00%     68.78% # Class of executed instruction
system.cpu.op_class::SimdShiftAcc                   0      0.00%     68.78% # Class of executed instruction
system.cpu.op_class::SimdDiv                        0      0.00%     68.78% # Class of executed instruction
system.cpu.op_class::SimdSqrt                       0      0.00%     68.78% # Class of executed instruction
system.cpu.op_class::SimdFloatAdd                   0      0.00%     68.78% # Class of executed instruction
system.cpu.op_class::SimdFloatAlu                   0      0.00%     68.78% # Class of executed instruction
system.cpu.op_class::SimdFloatCmp                   0      0.00%     68.78% # Class of executed instruction
system.cpu.op_class::SimdFloatCvt                   0      0.00%     68.78% # Class of executed instruction
system.cpu.op_class::SimdFloatDiv                   0      0.00%     68.78% # Class of executed instruction
system.cpu.op_class::SimdFloatMisc                 21      0.14%     68.92% # Class of executed instruction
system.cpu.op_class::SimdFloatMult                  0      0.00%     68.92% # Class of executed instruction
system.cpu.op_class::SimdFloatMultAcc               0      0.00%     68.92% # Class of executed instruction
system.cpu.op_class::SimdFloatSqrt                  0      0.00%     68.92% # Class of executed instruction
system.cpu.op_class::SimdReduceAdd                  0      0.00%     68.92% # Class of executed instruction
system.cpu.op_class::SimdReduceAlu                  0      0.00%     68.92% # Class of executed instruction
system.cpu.op_class::SimdReduceCmp                  0      0.00%     68.92% # Class of executed instruction
system.cpu.op_class::SimdFloatReduceAdd             0      0.00%     68.92% # Class of executed instruction
system.cpu.op_class::SimdFloatReduceCmp             0      0.00%     68.92% # Class of executed instruction
system.cpu.op_class::SimdAes                        0      0.00%     68.92% # Class of executed instruction
system.cpu.op_class::SimdAesMix                     0      0.00%     68.92% # Class of executed instruction
system.cpu.op_class::SimdSha1Hash                   0      0.00%     68.92% # Class of executed instruction
system.cpu.op_class::SimdSha1Hash2                  0      0.00%     68.92% # Class of executed instruction
system.cpu.op_class::SimdSha256Hash                 0      0.00%     68.92% # Class of executed instruction
system.cpu.op_class::SimdSha256Hash2                0      0.00%     68.92% # Class of executed instruction
system.cpu.op_class::SimdShaSigma2                  0      0.00%     68.92% # Class of executed instruction
system.cpu.op_class::SimdShaSigma3                  0      0.00%     68.92% # Class of executed instruction
system.cpu.op_class::SimdPredAlu                    0      0.00%     68.92% # Class of executed instruction
system.cpu.op_class::MemRead                     2304     15.27%     84.19% # Class of executed instruction
system.cpu.op_class::MemWrite                    2385     15.81%    100.00% # Class of executed instruction
system.cpu.op_class::FloatMemRead                   0      0.00%    100.00% # Class of executed instruction
system.cpu.op_class::FloatMemWrite                  0      0.00%    100.00% # Class of executed instruction
system.cpu.op_class::IprAccess                      0      0.00%    100.00% # Class of executed instruction
system.cpu.op_class::InstPrefetch                   0      0.00%    100.00% # Class of executed instruction
system.cpu.op_class::total                      15085                       # Class of executed instruction
system.cpu.workload.numSyscalls                    10                       # Number of system calls
system.membus.snoop_filter.hit_multi_requests            0                       # Number of requests hitting in the snoop filter with multiple (>1) holders of the requested data.
system.membus.snoop_filter.hit_multi_snoops            0                       # Number of snoops hitting in the snoop filter with multiple (>1) holders of the requested data.
system.membus.snoop_filter.hit_single_requests            0                       # Number of requests hitting in the snoop filter with a single holder of the requested data.
system.membus.snoop_filter.hit_single_snoops            0                       # Number of snoops hitting in the snoop filter with a single holder of the requested data.
system.membus.snoop_filter.tot_requests           442                       # Total number of requests made to the snoop filter.
system.membus.snoop_filter.tot_snoops               0                       # Total number of snoops made to the snoop filter.
system.tol2bus.snoop_filter.hit_multi_requests            2                       # Number of requests hitting in the snoop filter with multiple (>1) holders of the requested data.
system.tol2bus.snoop_filter.hit_multi_snoops            0                       # Number of snoops hitting in the snoop filter with multiple (>1) holders of the requested data.
system.tol2bus.snoop_filter.hit_single_requests           50                       # Number of requests hitting in the snoop filter with a single holder of the requested data.
system.tol2bus.snoop_filter.hit_single_snoops            0                       # Number of snoops hitting in the snoop filter with a single holder of the requested data.
system.tol2bus.snoop_filter.tot_requests          498                       # Total number of requests made to the snoop filter.
system.tol2bus.snoop_filter.tot_snoops              0                       # Total number of snoops made to the snoop filter.
system.membus.pwrStateResidencyTicks::UNDEFINED     87785000                       # Cumulative time (in ticks) in various power states
system.membus.trans_dist::ReadResp                372                       # Transaction distribution
system.membus.trans_dist::ReadExReq                70                       # Transaction distribution
system.membus.trans_dist::ReadExResp               70                       # Transaction distribution
system.membus.trans_dist::ReadSharedReq           372                       # Transaction distribution
system.membus.pkt_count_system.l2.mem_side::system.mem_ctrls.port          884                       # Packet count per connected master and slave (bytes)
system.membus.pkt_count::total                    884                       # Packet count per connected master and slave (bytes)
system.membus.pkt_size_system.l2.mem_side::system.mem_ctrls.port        28288                       # Cumulative packet size per connected master and slave (bytes)
system.membus.pkt_size::total                   28288                       # Cumulative packet size per connected master and slave (bytes)
system.membus.snoops                                0                       # Total snoops (count)
system.membus.snoopTraffic                          0                       # Total snoop traffic (bytes)
system.membus.snoop_fanout::samples               442                       # Request fanout histogram
system.membus.snoop_fanout::mean                    0                       # Request fanout histogram
system.membus.snoop_fanout::stdev                   0                       # Request fanout histogram
system.membus.snoop_fanout::underflows              0      0.00%      0.00% # Request fanout histogram
system.membus.snoop_fanout::0                     442    100.00%    100.00% # Request fanout histogram
system.membus.snoop_fanout::1                       0      0.00%    100.00% # Request fanout histogram
system.membus.snoop_fanout::overflows               0      0.00%    100.00% # Request fanout histogram
system.membus.snoop_fanout::min_value               0                       # Request fanout histogram
system.membus.snoop_fanout::max_value               0                       # Request fanout histogram
system.membus.snoop_fanout::total                 442                       # Request fanout histogram
system.membus.respLayer1.occupancy            2210500                       # Layer occupancy (ticks)
system.membus.respLayer1.utilization              2.5                       # Layer utilization (%)
system.membus.reqLayer0.occupancy              442000                       # Layer occupancy (ticks)
system.membus.reqLayer0.utilization               0.5                       # Layer utilization (%)
system.tol2bus.pwrStateResidencyTicks::UNDEFINED     87785000                       # Cumulative time (in ticks) in various power states
system.tol2bus.trans_dist::ReadResp               391                       # Transaction distribution
system.tol2bus.trans_dist::WritebackClean           37                       # Transaction distribution
system.tol2bus.trans_dist::ReadExReq               70                       # Transaction distribution
system.tol2bus.trans_dist::ReadExResp              70                       # Transaction distribution
system.tol2bus.trans_dist::ReadCleanReq           290                       # Transaction distribution
system.tol2bus.trans_dist::ReadSharedReq          101                       # Transaction distribution
system.tol2bus.pkt_count_system.cpu.icache.mem_side::system.l2.cpu_side          617                       # Packet count per connected master and slave (bytes)
system.tol2bus.pkt_count_system.cpu.dcache.mem_side::system.l2.cpu_side          342                       # Packet count per connected master and slave (bytes)
system.tol2bus.pkt_count::total                   959                       # Packet count per connected master and slave (bytes)
system.tol2bus.pkt_size_system.cpu.icache.mem_side::system.l2.cpu_side        20928                       # Cumulative packet size per connected master and slave (bytes)
system.tol2bus.pkt_size_system.cpu.dcache.mem_side::system.l2.cpu_side        10944                       # Cumulative packet size per connected master and slave (bytes)
system.tol2bus.pkt_size::total                  31872                       # Cumulative packet size per connected master and slave (bytes)
system.tol2bus.snoops                               0                       # Total snoops (count)
system.tol2bus.snoopTraffic                         0                       # Total snoop traffic (bytes)
system.tol2bus.snoop_fanout::samples              461                       # Request fanout histogram
system.tol2bus.snoop_fanout::mean            0.032538                       # Request fanout histogram
system.tol2bus.snoop_fanout::stdev           0.177617                       # Request fanout histogram
system.tol2bus.snoop_fanout::underflows             0      0.00%      0.00% # Request fanout histogram
system.tol2bus.snoop_fanout::0                    446     96.75%     96.75% # Request fanout histogram
system.tol2bus.snoop_fanout::1                     15      3.25%    100.00% # Request fanout histogram
system.tol2bus.snoop_fanout::2                      0      0.00%    100.00% # Request fanout histogram
system.tol2bus.snoop_fanout::overflows              0      0.00%    100.00% # Request fanout histogram
system.tol2bus.snoop_fanout::min_value              0                       # Request fanout histogram
system.tol2bus.snoop_fanout::max_value              1                       # Request fanout histogram
system.tol2bus.snoop_fanout::total                461                       # Request fanout histogram
system.tol2bus.reqLayer0.occupancy             572000                       # Layer occupancy (ticks)
system.tol2bus.reqLayer0.utilization              0.7                       # Layer utilization (%)
system.tol2bus.respLayer1.occupancy            513000                       # Layer occupancy (ticks)
system.tol2bus.respLayer1.utilization             0.6                       # Layer utilization (%)
system.tol2bus.respLayer0.occupancy            870000                       # Layer occupancy (ticks)
system.tol2bus.respLayer0.utilization             1.0                       # Layer utilization (%)
system.voltage_domain.voltage                       1                       # Voltage in Volts
system.clk_domain.clock                          1000                       # Clock period in ticks
system.l2.pwrStateResidencyTicks::UNDEFINED     87785000                       # Cumulative time (in ticks) in various power states
system.l2.demand_hits::.cpu.inst                   14                       # number of demand (read+write) hits
system.l2.demand_hits::.cpu.data                    5                       # number of demand (read+write) hits
system.l2.demand_hits::total                       19                       # number of demand (read+write) hits
system.l2.overall_hits::.cpu.inst                  14                       # number of overall hits
system.l2.overall_hits::.cpu.data                   5                       # number of overall hits
system.l2.overall_hits::total                      19                       # number of overall hits
system.l2.demand_misses::.cpu.inst                276                       # number of demand (read+write) misses
system.l2.demand_misses::.cpu.data                166                       # number of demand (read+write) misses
system.l2.demand_misses::total                    442                       # number of demand (read+write) misses
system.l2.overall_misses::.cpu.inst               276                       # number of overall misses
system.l2.overall_misses::.cpu.data               166                       # number of overall misses
system.l2.overall_misses::total                   442                       # number of overall misses
system.l2.demand_miss_latency::.cpu.inst     29537000                       # number of demand (read+write) miss cycles
system.l2.demand_miss_latency::.cpu.data     17936000                       # number of demand (read+write) miss cycles
system.l2.demand_miss_latency::total         47473000                       # number of demand (read+write) miss cycles
system.l2.overall_miss_latency::.cpu.inst     29537000                       # number of overall miss cycles
system.l2.overall_miss_latency::.cpu.data     17936000                       # number of overall miss cycles
system.l2.overall_miss_latency::total        47473000                       # number of overall miss cycles
system.l2.demand_accesses::.cpu.inst              290                       # number of demand (read+write) accesses
system.l2.demand_accesses::.cpu.data              171                       # number of demand (read+write) accesses
system.l2.demand_accesses::total                  461                       # number of demand (read+write) accesses
system.l2.overall_accesses::.cpu.inst             290                       # number of overall (read+write) accesses
system.l2.overall_accesses::.cpu.data             171                       # number of overall (read+write) accesses
system.l2.overall_accesses::total                 461                       # number of overall (read+write) accesses
system.l2.demand_miss_rate::.cpu.inst        0.951724                       # miss rate for demand accesses
system.l2.demand_miss_rate::.cpu.data        0.970760                       # miss rate for demand accesses
system.l2.demand_miss_rate::total            0.958785                       # miss rate for demand accesses
system.l2.overall_miss_rate::.cpu.inst       0.951724                       # miss rate for overall accesses
system.l2.overall_miss_rate::.cpu.data       0.970760                       # miss rate for overall accesses
system.l2.overall_miss_rate::total           0.958785                       # miss rate for overall accesses
system.l2.demand_avg_miss_latency::.cpu.inst 107018.115942                       # average overall miss latency
system.l2.demand_avg_miss_latency::.cpu.data 108048.192771                       # average overall miss latency
system.l2.demand_avg_miss_latency::total 107404.977376                       # average overall miss latency
system.l2.overall_avg_miss_latency::.cpu.inst 107018.115942                       # average overall miss latency
system.l2.overall_avg_miss_latency::.cpu.data 108048.192771                       # average overall miss latency
system.l2.overall_avg_miss_latency::total 107404.977376                       # average overall miss latency
system.l2.blocked_cycles::no_mshrs                  0                       # number of cycles access was blocked
system.l2.blocked_cycles::no_targets                0                       # number of cycles access was blocked
system.l2.blocked::no_mshrs                         0                       # number of cycles access was blocked
system.l2.blocked::no_targets                       0                       # number of cycles access was blocked
system.l2.avg_blocked_cycles::no_mshrs            nan                       # average number of cycles each access was blocked
system.l2.avg_blocked_cycles::no_targets          nan                       # average number of cycles each access was blocked
system.l2.demand_mshr_misses::.cpu.inst           276                       # number of demand (read+write) MSHR misses
system.l2.demand_mshr_misses::.cpu.data           166                       # number of demand (read+write) MSHR misses
system.l2.demand_mshr_misses::total               442                       # number of demand (read+write) MSHR misses
system.l2.overall_mshr_misses::.cpu.inst          276                       # number of overall MSHR misses
system.l2.overall_mshr_misses::.cpu.data          166                       # number of overall MSHR misses
system.l2.overall_mshr_misses::total              442                       # number of overall MSHR misses
system.l2.demand_mshr_miss_latency::.cpu.inst     24017000                       # number of demand (read+write) MSHR miss cycles
system.l2.demand_mshr_miss_latency::.cpu.data     14616000                       # number of demand (read+write) MSHR miss cycles
system.l2.demand_mshr_miss_latency::total     38633000                       # number of demand (read+write) MSHR miss cycles
system.l2.overall_mshr_miss_latency::.cpu.inst     24017000                       # number of overall MSHR miss cycles
system.l2.overall_mshr_miss_latency::.cpu.data     14616000                       # number of overall MSHR miss cycles
system.l2.overall_mshr_miss_latency::total     38633000                       # number of overall MSHR miss cycles
system.l2.demand_mshr_miss_rate::.cpu.inst     0.951724                       # mshr miss rate for demand accesses
system.l2.demand_mshr_miss_rate::.cpu.data     0.970760                       # mshr miss rate for demand accesses
system.l2.demand_mshr_miss_rate::total       0.958785                       # mshr miss rate for demand accesses
system.l2.overall_mshr_miss_rate::.cpu.inst     0.951724                       # mshr miss rate for overall accesses
system.l2.overall_mshr_miss_rate::.cpu.data     0.970760                       # mshr miss rate for overall accesses
system.l2.overall_mshr_miss_rate::total      0.958785                       # mshr miss rate for overall accesses
system.l2.demand_avg_mshr_miss_latency::.cpu.inst 87018.115942                       # average overall mshr miss latency
system.l2.demand_avg_mshr_miss_latency::.cpu.data 88048.192771                       # average overall mshr miss latency
system.l2.demand_avg_mshr_miss_latency::total 87404.977376                       # average overall mshr miss latency
system.l2.overall_avg_mshr_miss_latency::.cpu.inst 87018.115942                       # average overall mshr miss latency
system.l2.overall_avg_mshr_miss_latency::.cpu.data 88048.192771                       # average overall mshr miss latency
system.l2.overall_avg_mshr_miss_latency::total 87404.977376                       # average overall mshr miss latency
system.l2.replacements                              0                       # number of replacements
system.l2.WritebackClean_hits::.writebacks           35                       # number of WritebackClean hits
system.l2.WritebackClean_hits::total               35                       # number of WritebackClean hits
system.l2.WritebackClean_accesses::.writebacks           35                       # number of WritebackClean accesses(hits+misses)
system.l2.WritebackClean_accesses::total           35                       # number of WritebackClean accesses(hits+misses)
system.l2.ReadExReq_misses::.cpu.data              70                       # number of ReadExReq misses
system.l2.ReadExReq_misses::total                  70                       # number of ReadExReq misses
system.l2.ReadExReq_miss_latency::.cpu.data      7596000                       # number of ReadExReq miss cycles
system.l2.ReadExReq_miss_latency::total       7596000                       # number of ReadExReq miss cycles
system.l2.ReadExReq_accesses::.cpu.data            70                       # number of ReadExReq accesses(hits+misses)
system.l2.ReadExReq_accesses::total                70                       # number of ReadExReq accesses(hits+misses)
system.l2.ReadExReq_miss_rate::.cpu.data            1                       # miss rate for ReadExReq accesses
system.l2.ReadExReq_miss_rate::total                1                       # miss rate for ReadExReq accesses
system.l2.ReadExReq_avg_miss_latency::.cpu.data 108514.285714                       # average ReadExReq miss latency
system.l2.ReadExReq_avg_miss_latency::total 108514.285714                       # average ReadExReq miss latency
system.l2.ReadExReq_mshr_misses::.cpu.data           70                       # number of ReadExReq MSHR misses
system.l2.ReadExReq_mshr_misses::total             70                       # number of ReadExReq MSHR misses
system.l2.ReadExReq_mshr_miss_latency::.cpu.data      6196000                       # number of ReadExReq MSHR miss cycles
system.l2.ReadExReq_mshr_miss_latency::total      6196000                       # number of ReadExReq MSHR miss cycles
system.l2.ReadExReq_mshr_miss_rate::.cpu.data            1                       # mshr miss rate for ReadExReq accesses
system.l2.ReadExReq_mshr_miss_rate::total            1                       # mshr miss rate for ReadExReq accesses
system.l2.ReadExReq_avg_mshr_miss_latency::.cpu.data 88514.285714                       # average ReadExReq mshr miss latency
system.l2.ReadExReq_avg_mshr_miss_latency::total 88514.285714                       # average ReadExReq mshr miss latency
system.l2.ReadCleanReq_hits::.cpu.inst             14                       # number of ReadCleanReq hits
system.l2.ReadCleanReq_hits::total                 14                       # number of ReadCleanReq hits
system.l2.ReadCleanReq_misses::.cpu.inst          276                       # number of ReadCleanReq misses
system.l2.ReadCleanReq_misses::total              276                       # number of ReadCleanReq misses
system.l2.ReadCleanReq_miss_latency::.cpu.inst     29537000                       # number of ReadCleanReq miss cycles
system.l2.ReadCleanReq_miss_latency::total     29537000                       # number of ReadCleanReq miss cycles
system.l2.ReadCleanReq_accesses::.cpu.inst          290                       # number of ReadCleanReq accesses(hits+misses)
system.l2.ReadCleanReq_accesses::total            290                       # number of ReadCleanReq accesses(hits+misses)
system.l2.ReadCleanReq_miss_rate::.cpu.inst     0.951724                       # miss rate for ReadCleanReq accesses
system.l2.ReadCleanReq_miss_rate::total      0.951724                       # miss rate for ReadCleanReq accesses
system.l2.ReadCleanReq_avg_miss_latency::.cpu.inst 107018.115942                       # average ReadCleanReq miss latency
system.l2.ReadCleanReq_avg_miss_latency::total 107018.115942                       # average ReadCleanReq miss latency
system.l2.ReadCleanReq_mshr_misses::.cpu.inst          276                       # number of ReadCleanReq MSHR misses
system.l2.ReadCleanReq_mshr_misses::total          276                       # number of ReadCleanReq MSHR misses
system.l2.ReadCleanReq_mshr_miss_latency::.cpu.inst     24017000                       # number of ReadCleanReq MSHR miss cycles
system.l2.ReadCleanReq_mshr_miss_latency::total     24017000                       # number of ReadCleanReq MSHR miss cycles
system.l2.ReadCleanReq_mshr_miss_rate::.cpu.inst     0.951724                       # mshr miss rate for ReadCleanReq accesses
system.l2.ReadCleanReq_mshr_miss_rate::total     0.951724                       # mshr miss rate for ReadCleanReq accesses
system.l2.ReadCleanReq_avg_mshr_miss_latency::.cpu.inst 87018.115942                       # average ReadCleanReq mshr miss latency
system.l2.ReadCleanReq_avg_mshr_miss_latency::total 87018.115942                       # average ReadCleanReq mshr miss latency
system.l2.ReadSharedReq_hits::.cpu.data             5                       # number of ReadSharedReq hits
system.l2.ReadSharedReq_hits::total                 5                       # number of ReadSharedReq hits
system.l2.ReadSharedReq_misses::.cpu.data           96                       # number of ReadSharedReq misses
system.l2.ReadSharedReq_misses::total              96                       # number of ReadSharedReq misses
system.l2.ReadSharedReq_miss_latency::.cpu.data     10340000                       # number of ReadSharedReq miss cycles
system.l2.ReadSharedReq_miss_latency::total     10340000                       # number of ReadSharedReq miss cycles
system.l2.ReadSharedReq_accesses::.cpu.data          101                       # number of ReadSharedReq accesses(hits+misses)
system.l2.ReadSharedReq_accesses::total           101                       # number of ReadSharedReq accesses(hits+misses)
system.l2.ReadSharedReq_miss_rate::.cpu.data     0.950495                       # miss rate for ReadSharedReq accesses
system.l2.ReadSharedReq_miss_rate::total     0.950495                       # miss rate for ReadSharedReq accesses
system.l2.ReadSharedReq_avg_miss_latency::.cpu.data 107708.333333                       # average ReadSharedReq miss latency
system.l2.ReadSharedReq_avg_miss_latency::total 107708.333333                       # average ReadSharedReq miss latency
system.l2.ReadSharedReq_mshr_misses::.cpu.data           96                       # number of ReadSharedReq MSHR misses
system.l2.ReadSharedReq_mshr_misses::total           96                       # number of ReadSharedReq MSHR misses
system.l2.ReadSharedReq_mshr_miss_latency::.cpu.data      8420000                       # number of ReadSharedReq MSHR miss cycles
system.l2.ReadSharedReq_mshr_miss_latency::total      8420000                       # number of ReadSharedReq MSHR miss cycles
system.l2.ReadSharedReq_mshr_miss_rate::.cpu.data     0.950495                       # mshr miss rate for ReadSharedReq accesses
system.l2.ReadSharedReq_mshr_miss_rate::total     0.950495                       # mshr miss rate for ReadSharedReq accesses
system.l2.ReadSharedReq_avg_mshr_miss_latency::.cpu.data 87708.333333                       # average ReadSharedReq mshr miss latency
system.l2.ReadSharedReq_avg_mshr_miss_latency::total 87708.333333                       # average ReadSharedReq mshr miss latency
system.l2.tags.pwrStateResidencyTicks::UNDEFINED     87785000                       # Cumulative time (in ticks) in various power states
system.l2.tags.tagsinuse                   251.716867                       # Cycle average of tags in use
system.l2.tags.total_refs                         496                       # Total number of references to valid blocks.
system.l2.tags.sampled_refs                       442                       # Sample count of references to valid blocks.
system.l2.tags.avg_refs                      1.122172                       # Average number of references to valid blocks.
system.l2.tags.warmup_cycle                     96000                       # Cycle when the warmup percentage was hit.
system.l2.tags.occ_blocks::.cpu.inst       147.758161                       # Average occupied blocks per requestor
system.l2.tags.occ_blocks::.cpu.data       103.958707                       # Average occupied blocks per requestor
system.l2.tags.occ_percent::.cpu.inst        0.004509                       # Average percentage of cache occupancy
system.l2.tags.occ_percent::.cpu.data        0.003173                       # Average percentage of cache occupancy
system.l2.tags.occ_percent::total            0.007682                       # Average percentage of cache occupancy
system.l2.tags.occ_task_id_blocks::1024           442                       # Occupied blocks per task id
system.l2.tags.age_task_id_blocks_1024::0           48                       # Occupied blocks per task id
system.l2.tags.age_task_id_blocks_1024::1          394                       # Occupied blocks per task id
system.l2.tags.occ_task_id_percent::1024     0.013489                       # Percentage of cache occupancy per task id
system.l2.tags.tag_accesses                      4410                       # Number of tag accesses
system.l2.tags.data_accesses                     4410                       # Number of data accesses
system.cpu_voltage_domain.voltage                   1                       # Voltage in Volts
system.mem_ctrls.pwrStateResidencyTicks::UNDEFINED     87785000                       # Cumulative time (in ticks) in various power states
system.mem_ctrls.bytes_read::.cpu.inst          17664                       # Number of bytes read from this memory
system.mem_ctrls.bytes_read::.cpu.data          10624                       # Number of bytes read from this memory
system.mem_ctrls.bytes_read::total              28288                       # Number of bytes read from this memory
system.mem_ctrls.bytes_inst_read::.cpu.inst        17664                       # Number of instructions bytes read from this memory
system.mem_ctrls.bytes_inst_read::total         17664                       # Number of instructions bytes read from this memory
system.mem_ctrls.num_reads::.cpu.inst             276                       # Number of read requests responded to by this memory
system.mem_ctrls.num_reads::.cpu.data             166                       # Number of read requests responded to by this memory
system.mem_ctrls.num_reads::total                 442                       # Number of read requests responded to by this memory
system.mem_ctrls.bw_read::.cpu.inst         201218887                       # Total read bandwidth from this memory (bytes/s)
system.mem_ctrls.bw_read::.cpu.data         121022954                       # Total read bandwidth from this memory (bytes/s)
system.mem_ctrls.bw_read::total             322241841                       # Total read bandwidth from this memory (bytes/s)
system.mem_ctrls.bw_inst_read::.cpu.inst    201218887                       # Instruction read bandwidth from this memory (bytes/s)
system.mem_ctrls.bw_inst_read::total        201218887                       # Instruction read bandwidth from this memory (bytes/s)
system.mem_ctrls.bw_total::.cpu.inst        201218887                       # Total bandwidth to/from this memory (bytes/s)
system.mem_ctrls.bw_total::.cpu.data        121022954                       # Total bandwidth to/from this memory (bytes/s)
system.mem_ctrls.bw_total::total            322241841                       # Total bandwidth to/from this memory (bytes/s)
system.mem_ctrls.avgPriority_.cpu.inst::samples       552.00                       # Average QoS priority value for accepted requests
system.mem_ctrls.avgPriority_.cpu.data::samples       332.00                       # Average QoS priority value for accepted requests
system.mem_ctrls.priorityMinLatency      0.000000020000                       # per QoS priority minimum request to response latency (s)
system.mem_ctrls.priorityMaxLatency      0.000000301000                       # per QoS priority maximum request to response latency (s)
system.mem_ctrls.numReadWriteTurnArounds            0                       # Number of turnarounds from READ to WRITE
system.mem_ctrls.numWriteReadTurnArounds            0                       # Number of turnarounds from WRITE to READ
system.mem_ctrls.numStayReadState                1348                       # Number of times bus staying in READ state
system.mem_ctrls.numStayWriteState                  0                       # Number of times bus staying in WRITE state
system.mem_ctrls.readReqs                         442                       # Number of read requests accepted
system.mem_ctrls.writeReqs                          0                       # Number of write requests accepted
system.mem_ctrls.readBursts                       884                       # Number of DRAM read bursts, including those serviced by the write queue
system.mem_ctrls.writeBursts                        0                       # Number of DRAM write bursts, including those merged in the write queue
system.mem_ctrls.servicedByWrQ                      0                       # Number of DRAM read bursts serviced by the write queue
system.mem_ctrls.mergedWrBursts                     0                       # Number of DRAM write bursts merged with an existing one
system.mem_ctrls.neitherReadNorWriteReqs            0                       # Number of requests that are neither read nor write
system.mem_ctrls.perBankRdBursts::0               182                       # Per bank write bursts
system.mem_ctrls.perBankRdBursts::1               122                       # Per bank write bursts
system.mem_ctrls.perBankRdBursts::2                62                       # Per bank write bursts
system.mem_ctrls.perBankRdBursts::3               120                       # Per bank write bursts
system.mem_ctrls.perBankRdBursts::4               112                       # Per bank write bursts
system.mem_ctrls.perBankRdBursts::5                54                       # Per bank write bursts
system.mem_ctrls.perBankRdBursts::6                68                       # Per bank write bursts
system.mem_ctrls.perBankRdBursts::7               164                       # Per bank write bursts
system.mem_ctrls.perBankWrBursts::0                 0                       # Per bank write bursts
system.mem_ctrls.perBankWrBursts::1                 0                       # Per bank write bursts
system.mem_ctrls.perBankWrBursts::2                 0                       # Per bank write bursts
system.mem_ctrls.perBankWrBursts::3                 0                       # Per bank write bursts
system.mem_ctrls.perBankWrBursts::4                 0                       # Per bank write bursts
system.mem_ctrls.perBankWrBursts::5                 0                       # Per bank write bursts
system.mem_ctrls.perBankWrBursts::6                 0                       # Per bank write bursts
system.mem_ctrls.perBankWrBursts::7                 0                       # Per bank write bursts
system.mem_ctrls.avgRdQLen                       2.01                       # Average read queue length when enqueuing
system.mem_ctrls.avgWrQLen                       0.00                       # Average write queue length when enqueuing
system.mem_ctrls.totQLat                     12291000                       # Total ticks spent queuing
system.mem_ctrls.totBusLat                    4420000                       # Total ticks spent in databus transfers
system.mem_ctrls.totMemAccLat                29971000                       # Total ticks spent from burst creation until serviced by the DRAM
system.mem_ctrls.avgQLat                     13903.85                       # Average queueing delay per DRAM burst
system.mem_ctrls.avgBusLat                    5000.00                       # Average bus latency per DRAM burst
system.mem_ctrls.avgMemAccLat                33903.85                       # Average memory access latency per DRAM burst
system.mem_ctrls.numRdRetry                         0                       # Number of times read queue was full causing retry
system.mem_ctrls.numWrRetry                         0                       # Number of times write queue was full causing retry
system.mem_ctrls.readRowHits                      721                       # Number of row buffer hits during reads
system.mem_ctrls.writeRowHits                       0                       # Number of row buffer hits during writes
system.mem_ctrls.readRowHitRate                 81.56                       # Row buffer hit rate for reads
system.mem_ctrls.writeRowHitRate                  nan                       # Row buffer hit rate for writes
system.mem_ctrls.readPktSize::0                     0                       # Read request sizes (log2)
system.mem_ctrls.readPktSize::1                     0                       # Read request sizes (log2)
system.mem_ctrls.readPktSize::2                     0                       # Read request sizes (log2)
system.mem_ctrls.readPktSize::3                     0                       # Read request sizes (log2)
system.mem_ctrls.readPktSize::4                     0                       # Read request sizes (log2)
system.mem_ctrls.readPktSize::5                   884                       # Read request sizes (log2)
system.mem_ctrls.writePktSize::0                    0                       # Write request sizes (log2)
system.mem_ctrls.writePktSize::1                    0                       # Write request sizes (log2)
system.mem_ctrls.writePktSize::2                    0                       # Write request sizes (log2)
system.mem_ctrls.writePktSize::3                    0                       # Write request sizes (log2)
system.mem_ctrls.writePktSize::4                    0                       # Write request sizes (log2)
system.mem_ctrls.writePktSize::5                    0                       # Write request sizes (log2)
system.mem_ctrls.rdQLenPdf::0                     440                       # What read queue length does an incoming req see
system.mem_ctrls.rdQLenPdf::1                     440                       # What read queue length does an incoming req see
system.mem_ctrls.rdQLenPdf::2                       2                       # What read queue length does an incoming req see
system.mem_ctrls.rdQLenPdf::3                       2                       # What read queue length does an incoming req see
system.mem_ctrls.rdQLenPdf::4                       0                       # What read queue length does an incoming req see
system.mem_ctrls.rdQLenPdf::5                       0                       # What read queue length does an incoming req see
system.mem_ctrls.rdQLenPdf::6                       0                       # What read queue length does an incoming req see
system.mem_ctrls.rdQLenPdf::7                       0                       # What read queue length does an incoming req see
system.mem_ctrls.rdQLenPdf::8                       0                       # What read queue length does an incoming req see
system.mem_ctrls.rdQLenPdf::9                       0                       # What read queue length does an incoming req see
system.mem_ctrls.rdQLenPdf::10                      0                       # What read queue length does an incoming req see
system.mem_ctrls.rdQLenPdf::11                      0                       # What read queue length does an incoming req see
system.mem_ctrls.rdQLenPdf::12                      0                       # What read queue length does an incoming req see
system.mem_ctrls.rdQLenPdf::13                      0                       # What read queue length does an incoming req see
system.mem_ctrls.rdQLenPdf::14                      0                       # What read queue length does an incoming req see
system.mem_ctrls.rdQLenPdf::15                      0                       # What read queue length does an incoming req see
system.mem_ctrls.rdQLenPdf::16                      0                       # What read queue length does an incoming req see
system.mem_ctrls.rdQLenPdf::17                      0                       # What read queue length does an incoming req see
system.mem_ctrls.rdQLenPdf::18                      0                       # What read queue length does an incoming req see
system.mem_ctrls.rdQLenPdf::19                      0                       # What read queue length does an incoming req see
system.mem_ctrls.rdQLenPdf::20                      0                       # What read queue length does an incoming req see
system.mem_ctrls.rdQLenPdf::21                      0                       # What read queue length does an incoming req see
system.mem_ctrls.rdQLenPdf::22                      0                       # What read queue length does an incoming req see
system.mem_ctrls.rdQLenPdf::23                      0                       # What read queue length does an incoming req see
system.mem_ctrls.rdQLenPdf::24                      0                       # What read queue length does an incoming req see
system.mem_ctrls.rdQLenPdf::25                      0                       # What read queue length does an incoming req see
system.mem_ctrls.rdQLenPdf::26                      0                       # What read queue length does an incoming req see
system.mem_ctrls.rdQLenPdf::27                      0                       # What read queue length does an incoming req see
system.mem_ctrls.rdQLenPdf::28                      0                       # What read queue length does an incoming req see
system.mem_ctrls.rdQLenPdf::29                      0                       # What read queue length does an incoming req see
system.mem_ctrls.rdQLenPdf::30                      0                       # What read queue length does an incoming req see
system.mem_ctrls.rdQLenPdf::31                      0                       # What read queue length does an incoming req see
system.mem_ctrls.wrQLenPdf::0                       0                       # What write queue length does an incoming req see
system.mem_ctrls.wrQLenPdf::1                       0                       # What write queue length does an incoming req see
system.mem_ctrls.wrQLenPdf::2                       0                       # What write queue length does an incoming req see
system.mem_ctrls.wrQLenPdf::3                       0                       # What write queue length does an incoming req see
system.mem_ctrls.wrQLenPdf::4                       0                       # What write queue length does an incoming req see
system.mem_ctrls.wrQLenPdf::5                       0                       # What write queue length does an incoming req see
system.mem_ctrls.wrQLenPdf::6                       0                       # What write queue length does an incoming req see
system.mem_ctrls.wrQLenPdf::7                       0                       # What write queue length does an incoming req see
system.mem_ctrls.wrQLenPdf::8                       0                       # What write queue length does an incoming req see
system.mem_ctrls.wrQLenPdf::9                       0                       # What write queue length does an incoming req see
system.mem_ctrls.wrQLenPdf::10                      0                       # What write queue length does an incoming req see
system.mem_ctrls.wrQLenPdf::11                      0                       # What write queue length does an incoming req see
system.mem_ctrls.wrQLenPdf::12                      0                       # What write queue length does an incoming req see
system.mem_ctrls.wrQLenPdf::13                      0                       # What write queue length does an incoming req see
system.mem_ctrls.wrQLenPdf::14                      0                       # What write queue length does an incoming req see
system.mem_ctrls.wrQLenPdf::15                      0                       # What write queue length does an incoming req see
system.mem_ctrls.wrQLenPdf::16                      0                       # What write queue length does an incoming req see
system.mem_ctrls.wrQLenPdf::17                      0                       # What write queue length does an incoming req see
system.mem_ctrls.wrQLenPdf::18                      0                       # What write queue length does an incoming req see
system.mem_ctrls.wrQLenPdf::19                      0                       # What write queue length does an incoming req see
system.mem_ctrls.wrQLenPdf::20                      0                       # What write queue length does an incoming req see
system.mem_ctrls.wrQLenPdf::21                      0                       # What write queue length does an incoming req see
system.mem_ctrls.wrQLenPdf::22                      0                       # What write queue length does an incoming req see
system.mem_ctrls.wrQLenPdf::23                      0                       # What write queue length does an incoming req see
system.mem_ctrls.wrQLenPdf::24                      0                       # What write queue length does an incoming req see
system.mem_ctrls.wrQLenPdf::25                      0                       # What write queue length does an incoming req see
system.mem_ctrls.wrQLenPdf::26                      0                       # What write queue length does an incoming req see
system.mem_ctrls.wrQLenPdf::27                      0                       # What write queue length does an incoming req see
system.mem_ctrls.wrQLenPdf::28                      0                       # What write queue length does an incoming req see
system.mem_ctrls.wrQLenPdf::29                      0                       # What write queue length does an incoming req see
system.mem_ctrls.wrQLenPdf::30                      0                       # What write queue length does an incoming req see
system.mem_ctrls.wrQLenPdf::31                      0                       # What write queue length does an incoming req see
system.mem_ctrls.wrQLenPdf::32                      0                       # What write queue length does an incoming req see
system.mem_ctrls.wrQLenPdf::33                      0                       # What write queue length does an incoming req see
system.mem_ctrls.wrQLenPdf::34                      0                       # What write queue length does an incoming req see
system.mem_ctrls.wrQLenPdf::35                      0                       # What write queue length does an incoming req see
system.mem_ctrls.wrQLenPdf::36                      0                       # What write queue length does an incoming req see
system.mem_ctrls.wrQLenPdf::37                      0                       # What write queue length does an incoming req see
system.mem_ctrls.wrQLenPdf::38                      0                       # What write queue length does an incoming req see
system.mem_ctrls.wrQLenPdf::39                      0                       # What write queue length does an incoming req see
system.mem_ctrls.wrQLenPdf::40                      0                       # What write queue length does an incoming req see
system.mem_ctrls.wrQLenPdf::41                      0                       # What write queue length does an incoming req see
system.mem_ctrls.wrQLenPdf::42                      0                       # What write queue length does an incoming req see
system.mem_ctrls.wrQLenPdf::43                      0                       # What write queue length does an incoming req see
system.mem_ctrls.wrQLenPdf::44                      0                       # What write queue length does an incoming req see
system.mem_ctrls.wrQLenPdf::45                      0                       # What write queue length does an incoming req see
system.mem_ctrls.wrQLenPdf::46                      0                       # What write queue length does an incoming req see
system.mem_ctrls.wrQLenPdf::47                      0                       # What write queue length does an incoming req see
system.mem_ctrls.wrQLenPdf::48                      0                       # What write queue length does an incoming req see
system.mem_ctrls.wrQLenPdf::49                      0                       # What write queue length does an incoming req see
system.mem_ctrls.wrQLenPdf::50                      0                       # What write queue length does an incoming req see
system.mem_ctrls.wrQLenPdf::51                      0                       # What write queue length does an incoming req see
system.mem_ctrls.wrQLenPdf::52                      0                       # What write queue length does an incoming req see
system.mem_ctrls.wrQLenPdf::53                      0                       # What write queue length does an incoming req see
system.mem_ctrls.wrQLenPdf::54                      0                       # What write queue length does an incoming req see
system.mem_ctrls.wrQLenPdf::55                      0                       # What write queue length does an incoming req see
system.mem_ctrls.wrQLenPdf::56                      0                       # What write queue length does an incoming req see
system.mem_ctrls.wrQLenPdf::57                      0                       # What write queue length does an incoming req see
system.mem_ctrls.wrQLenPdf::58                      0                       # What write queue length does an incoming req see
system.mem_ctrls.wrQLenPdf::59                      0                       # What write queue length does an incoming req see
system.mem_ctrls.wrQLenPdf::60                      0                       # What write queue length does an incoming req see
system.mem_ctrls.wrQLenPdf::61                      0                       # What write queue length does an incoming req see
system.mem_ctrls.wrQLenPdf::62                      0                       # What write queue length does an incoming req see
system.mem_ctrls.wrQLenPdf::63                      0                       # What write queue length does an incoming req see
system.mem_ctrls.bytesPerActivate::samples          159                       # Bytes accessed per row activation
system.mem_ctrls.bytesPerActivate::mean    175.094340                       # Bytes accessed per row activation
system.mem_ctrls.bytesPerActivate::gmean   134.175123                       # Bytes accessed per row activation
system.mem_ctrls.bytesPerActivate::stdev   138.215700                       # Bytes accessed per row activation
system.mem_ctrls.bytesPerActivate::64-127           61     38.36%     38.36% # Bytes accessed per row activation
system.mem_ctrls.bytesPerActivate::128-191           40     25.16%     63.52% # Bytes accessed per row activation
system.mem_ctrls.bytesPerActivate::192-255           17     10.69%     74.21% # Bytes accessed per row activation
system.mem_ctrls.bytesPerActivate::256-319           13      8.18%     82.39% # Bytes accessed per row activation
system.mem_ctrls.bytesPerActivate::320-383            6      3.77%     86.16% # Bytes accessed per row activation
system.mem_ctrls.bytesPerActivate::384-447            6      3.77%     89.94% # Bytes accessed per row activation
system.mem_ctrls.bytesPerActivate::448-511            3      1.89%     91.82% # Bytes accessed per row activation
system.mem_ctrls.bytesPerActivate::512-575           13      8.18%    100.00% # Bytes accessed per row activation
system.mem_ctrls.bytesPerActivate::total          159                       # Bytes accessed per row activation
system.mem_ctrls.bytesReadDRAM                  28288                       # Total number of bytes read from DRAM
system.mem_ctrls.bytesReadWrQ                       0                       # Total number of bytes read from write queue
system.mem_ctrls.bytesWritten                       0                       # Total number of bytes written to DRAM
system.mem_ctrls.bytesReadSys                   28288                       # Total read bytes from the system interface side
system.mem_ctrls.bytesWrittenSys                    0                       # Total written bytes from the system interface side
system.mem_ctrls.avgRdBW                       322.24                       # Average DRAM read bandwidth in MiByte/s
system.mem_ctrls.avgWrBW                         0.00                       # Average achieved write bandwidth in MiByte/s
system.mem_ctrls.avgRdBWSys                    322.24                       # Average system read bandwidth in MiByte/s
system.mem_ctrls.avgWrBWSys                      0.00                       # Average system write bandwidth in MiByte/s
system.mem_ctrls.peakBW                       6400.00                       # Theoretical peak bandwidth in MiByte/s
system.mem_ctrls.busUtil                         5.04                       # Data bus utilization in percentage
system.mem_ctrls.busUtilRead                     5.04                       # Data bus utilization in percentage for reads
system.mem_ctrls.busUtilWrite                    0.00                       # Data bus utilization in percentage for writes
system.mem_ctrls.totGap                      87630000                       # Total gap between requests
system.mem_ctrls.avgGap                     198257.92                       # Average gap between requests
system.mem_ctrls.masterReadBytes::.cpu.inst        17664                       # Per-master bytes read from memory
system.mem_ctrls.masterReadBytes::.cpu.data        10624                       # Per-master bytes read from memory
system.mem_ctrls.masterReadRate::.cpu.inst 201218887.053596854210                       # Per-master bytes read from memory rate (Bytes/sec)
system.mem_ctrls.masterReadRate::.cpu.data 121022953.807598114014                       # Per-master bytes read from memory rate (Bytes/sec)
system.mem_ctrls.masterReadAccesses::.cpu.inst          552                       # Per-master read serviced memory accesses
system.mem_ctrls.masterReadAccesses::.cpu.data          332                       # Per-master read serviced memory accesses
system.mem_ctrls.masterReadTotalLat::.cpu.inst     18501000                       # Per-master read total memory access latency
system.mem_ctrls.masterReadTotalLat::.cpu.data     11470000                       # Per-master read total memory access latency
system.mem_ctrls.masterReadAvgLat::.cpu.inst     33516.30                       # Per-master read average memory access latency
system.mem_ctrls.masterReadAvgLat::.cpu.data     34548.19                       # Per-master read average memory access latency
system.mem_ctrls.pageHitRate                    81.56                       # Row buffer hit rate, read and write combined
system.mem_ctrls.rank0.actEnergy               290955                       # Energy for activate commands per rank (pJ)
system.mem_ctrls.rank0.preEnergy         149587.200000                       # Energy for precharge commands per rank (pJ)
system.mem_ctrls.rank0.readEnergy             1039584                       # Energy for read commands per rank (pJ)
system.mem_ctrls.rank0.writeEnergy                  0                       # Energy for write commands per rank (pJ)
system.mem_ctrls.rank0.refreshEnergy           531960                       # Energy for refresh commands per rank (pJ)
system.mem_ctrls.rank0.actBackEnergy     3563599.500000                       # Energy for active background per rank (pJ)
system.mem_ctrls.rank0.preBackEnergy     245575.200000                       # Energy for precharge background per rank (pJ)
system.mem_ctrls.rank0.actPowerDownEnergy            0                       # Energy for active power-down per rank (pJ)
system.mem_ctrls.rank0.prePowerDownEnergy            0                       # Energy for precharge power-down per rank (pJ)
system.mem_ctrls.rank0.selfRefreshEnergy            0                       # Energy for self refresh per rank (pJ)
system.mem_ctrls.rank0.totalEnergy       5821260.900000                       # Total energy per rank (pJ)
system.mem_ctrls.rank0.averagePower         66.312706                       # Core power per rank (mW)
system.mem_ctrls.rank0.totalIdleTime                0                       # Total Idle time Per DRAM Rank
system.mem_ctrls.rank0.memoryStateTime::IDLE      6699000                       # Time in different power states
system.mem_ctrls.rank0.memoryStateTime::REF      2860000                       # Time in different power states
system.mem_ctrls.rank0.memoryStateTime::SREF            0                       # Time in different power states
system.mem_ctrls.rank0.memoryStateTime::PRE_PDN            0                       # Time in different power states
system.mem_ctrls.rank0.memoryStateTime::ACT     78226000                       # Time in different power states
system.mem_ctrls.rank0.memoryStateTime::ACT_PDN            0                       # Time in different power states
system.cpu_clk_domain.clock                      1000                       # Clock period in ticks
system.cpu.numPwrStateTransitions                   1                       # Number of power state transitions
system.cpu.pwrStateResidencyTicks::ON        87785000                       # Cumulative time (in ticks) in various power states
system.cpu.icache.pwrStateResidencyTicks::UNDEFINED     87785000                       # Cumulative time (in ticks) in various power states
system.cpu.icache.demand_hits::.cpu.inst        14812                       # number of demand (read+write) hits
system.cpu.icache.demand_hits::total            14812                       # number of demand (read+write) hits
system.cpu.icache.overall_hits::.cpu.inst        14812                       # number of overall hits
system.cpu.icache.overall_hits::total           14812                       # number of overall hits
system.cpu.icache.demand_misses::.cpu.inst          290                       # number of demand (read+write) misses
system.cpu.icache.demand_misses::total            290                       # number of demand (read+write) misses
system.cpu.icache.overall_misses::.cpu.inst          290                       # number of overall misses
system.cpu.icache.overall_misses::total           290                       # number of overall misses
system.cpu.icache.demand_miss_latency::.cpu.inst     31301000                       # number of demand (read+write) miss cycles
system.cpu.icache.demand_miss_latency::total     31301000                       # number of demand (read+write) miss cycles
system.cpu.icache.overall_miss_latency::.cpu.inst     31301000                       # number of overall miss cycles
system.cpu.icache.overall_miss_latency::total     31301000                       # number of overall miss cycles
system.cpu.icache.demand_accesses::.cpu.inst        15102                       # number of demand (read+write) accesses
system.cpu.icache.demand_accesses::total        15102                       # number of demand (read+write) accesses
[...]
system.cpu.icache.ReadReq_accesses::.cpu.inst        15102                       # number of ReadReq accesses(hits+misses)
system.cpu.icache.ReadReq_accesses::total        15102                       # number of ReadReq accesses(hits+misses)
system.cpu.icache.ReadReq_miss_rate::.cpu.inst     0.019203                       # miss rate for ReadReq accesses
system.cpu.icache.ReadReq_miss_rate::total     0.019203                       # miss rate for ReadReq accesses
system.cpu.icache.ReadReq_avg_miss_latency::.cpu.inst 107934.482759                       # average ReadReq miss latency
system.cpu.icache.ReadReq_avg_miss_latency::total 107934.482759                       # average ReadReq miss latency
system.cpu.icache.ReadReq_mshr_misses::.cpu.inst          290                       # number of ReadReq MSHR misses
system.cpu.icache.ReadReq_mshr_misses::total          290                       # number of ReadReq MSHR misses
system.cpu.icache.ReadReq_mshr_miss_latency::.cpu.inst     30721000                       # number of ReadReq MSHR miss cycles
system.cpu.icache.ReadReq_mshr_miss_latency::total     30721000                       # number of ReadReq MSHR miss cycles
system.cpu.icache.ReadReq_mshr_miss_rate::.cpu.inst     0.019203                       # mshr miss rate for ReadReq accesses
system.cpu.icache.ReadReq_mshr_miss_rate::total     0.019203                       # mshr miss rate for ReadReq accesses
system.cpu.icache.ReadReq_avg_mshr_miss_latency::.cpu.inst 105934.482759                       # average ReadReq mshr miss latency
system.cpu.icache.ReadReq_avg_mshr_miss_latency::total 105934.482759                       # average ReadReq mshr miss latency
system.cpu.icache.tags.pwrStateResidencyTicks::UNDEFINED     87785000                       # Cumulative time (in ticks) in various power states
system.cpu.icache.tags.tagsinuse           143.187357                       # Cycle average of tags in use
system.cpu.icache.tags.total_refs               15102                       # Total number of references to valid blocks.
system.cpu.icache.tags.sampled_refs               290                       # Sample count of references to valid blocks.
system.cpu.icache.tags.avg_refs             52.075862                       # Average number of references to valid blocks.
system.cpu.icache.tags.warmup_cycle            117000                       # Cycle when the warmup percentage was hit.
system.cpu.icache.tags.occ_blocks::.cpu.inst   143.187357                       # Average occupied blocks per requestor
system.cpu.icache.tags.occ_percent::.cpu.inst     0.279663                       # Average percentage of cache occupancy
system.cpu.icache.tags.occ_percent::total     0.279663                       # Average percentage of cache occupancy
system.cpu.icache.tags.occ_task_id_blocks::1024          253                       # Occupied blocks per task id
system.cpu.icache.tags.age_task_id_blocks_1024::0           41                       # Occupied blocks per task id
system.cpu.icache.tags.age_task_id_blocks_1024::1          212                       # Occupied blocks per task id
system.cpu.icache.tags.occ_task_id_percent::1024     0.494141                       # Percentage of cache occupancy per task id
system.cpu.icache.tags.tag_accesses             30494                       # Number of tag accesses
system.cpu.icache.tags.data_accesses            30494                       # Number of data accesses
system.cpu.dtb.walker.pwrStateResidencyTicks::UNDEFINED     87785000                       # Cumulative time (in ticks) in various power states
system.cpu.dtb.stage2_mmu.stage2_tlb.walker.pwrStateResidencyTicks::UNDEFINED     87785000                       # Cumulative time (in ticks) in various power states
system.cpu.itb.walker.pwrStateResidencyTicks::UNDEFINED     87785000                       # Cumulative time (in ticks) in various power states
system.cpu.itb.stage2_mmu.stage2_tlb.walker.pwrStateResidencyTicks::UNDEFINED     87785000                       # Cumulative time (in ticks) in various power states
system.cpu.dcache.pwrStateResidencyTicks::UNDEFINED     87785000                       # Cumulative time (in ticks) in various power states
system.cpu.dcache.demand_hits::.cpu.data         4289                       # number of demand (read+write) hits
system.cpu.dcache.demand_hits::total             4289                       # number of demand (read+write) hits
system.cpu.dcache.overall_hits::.cpu.data         4310                       # number of overall hits
system.cpu.dcache.overall_hits::total            4310                       # number of overall hits
system.cpu.dcache.demand_misses::.cpu.data          166                       # number of demand (read+write) misses
system.cpu.dcache.demand_misses::total            166                       # number of demand (read+write) misses
system.cpu.dcache.overall_misses::.cpu.data          174                       # number of overall misses
system.cpu.dcache.overall_misses::total           174                       # number of overall misses
system.cpu.dcache.demand_miss_latency::.cpu.data     18363000                       # number of demand (read+write) miss cycles
system.cpu.dcache.demand_miss_latency::total     18363000                       # number of demand (read+write) miss cycles
system.cpu.dcache.overall_miss_latency::.cpu.data     18363000                       # number of overall miss cycles
system.cpu.dcache.overall_miss_latency::total     18363000                       # number of overall miss cycles
system.cpu.dcache.demand_accesses::.cpu.data         4455                       # number of demand (read+write) accesses
system.cpu.dcache.demand_accesses::total         4455                       # number of demand (read+write) accesses
system.cpu.dcache.overall_accesses::.cpu.data         4484                       # number of overall (read+write) accesses
system.cpu.dcache.overall_accesses::total         4484                       # number of overall (read+write) accesses
system.cpu.dcache.demand_miss_rate::.cpu.data     0.037262                       # miss rate for demand accesses
system.cpu.dcache.demand_miss_rate::total     0.037262                       # miss rate for demand accesses
system.cpu.dcache.overall_miss_rate::.cpu.data     0.038805                       # miss rate for overall accesses
system.cpu.dcache.overall_miss_rate::total     0.038805                       # miss rate for overall accesses
system.cpu.dcache.demand_avg_miss_latency::.cpu.data 110620.481928                       # average overall miss latency
system.cpu.dcache.demand_avg_miss_latency::total 110620.481928                       # average overall miss latency
system.cpu.dcache.overall_avg_miss_latency::.cpu.data 105534.482759                       # average overall miss latency
system.cpu.dcache.overall_avg_miss_latency::total 105534.482759                       # average overall miss latency
system.cpu.dcache.blocked_cycles::no_mshrs            0                       # number of cycles access was blocked
system.cpu.dcache.blocked_cycles::no_targets            0                       # number of cycles access was blocked
system.cpu.dcache.blocked::no_mshrs                 0                       # number of cycles access was blocked
system.cpu.dcache.blocked::no_targets               0                       # number of cycles access was blocked
system.cpu.dcache.avg_blocked_cycles::no_mshrs          nan                       # average number of cycles each access was blocked
system.cpu.dcache.avg_blocked_cycles::no_targets          nan                       # average number of cycles each access was blocked
system.cpu.dcache.demand_mshr_hits::.cpu.data            1                       # number of demand (read+write) MSHR hits
system.cpu.dcache.demand_mshr_hits::total            1                       # number of demand (read+write) MSHR hits
system.cpu.dcache.overall_mshr_hits::.cpu.data            1                       # number of overall MSHR hits
system.cpu.dcache.overall_mshr_hits::total            1                       # number of overall MSHR hits
system.cpu.dcache.demand_mshr_misses::.cpu.data          165                       # number of demand (read+write) MSHR misses
system.cpu.dcache.demand_mshr_misses::total          165                       # number of demand (read+write) MSHR misses
system.cpu.dcache.overall_mshr_misses::.cpu.data          171                       # number of overall MSHR misses
system.cpu.dcache.overall_mshr_misses::total          171                       # number of overall MSHR misses
system.cpu.dcache.demand_mshr_miss_latency::.cpu.data     17938000                       # number of demand (read+write) MSHR miss cycles
system.cpu.dcache.demand_mshr_miss_latency::total     17938000                       # number of demand (read+write) MSHR miss cycles
system.cpu.dcache.overall_mshr_miss_latency::.cpu.data     18568000                       # number of overall MSHR miss cycles
system.cpu.dcache.overall_mshr_miss_latency::total     18568000                       # number of overall MSHR miss cycles
system.cpu.dcache.demand_mshr_miss_rate::.cpu.data     0.037037                       # mshr miss rate for demand accesses
system.cpu.dcache.demand_mshr_miss_rate::total     0.037037                       # mshr miss rate for demand accesses
system.cpu.dcache.overall_mshr_miss_rate::.cpu.data     0.038136                       # mshr miss rate for overall accesses
system.cpu.dcache.overall_mshr_miss_rate::total     0.038136                       # mshr miss rate for overall accesses
system.cpu.dcache.demand_avg_mshr_miss_latency::.cpu.data 108715.151515                       # average overall mshr miss latency
system.cpu.dcache.demand_avg_mshr_miss_latency::total 108715.151515                       # average overall mshr miss latency
system.cpu.dcache.overall_avg_mshr_miss_latency::.cpu.data 108584.795322                       # average overall mshr miss latency
system.cpu.dcache.overall_avg_mshr_miss_latency::total 108584.795322                       # average overall mshr miss latency
system.cpu.dcache.replacements                      0                       # number of replacements
system.cpu.dcache.ReadReq_hits::.cpu.data         2084                       # number of ReadReq hits
system.cpu.dcache.ReadReq_hits::total            2084                       # number of ReadReq hits
system.cpu.dcache.ReadReq_misses::.cpu.data           96                       # number of ReadReq misses
system.cpu.dcache.ReadReq_misses::total            96                       # number of ReadReq misses
system.cpu.dcache.ReadReq_miss_latency::.cpu.data     10417000                       # number of ReadReq miss cycles
system.cpu.dcache.ReadReq_miss_latency::total     10417000                       # number of ReadReq miss cycles
system.cpu.dcache.ReadReq_accesses::.cpu.data         2180                       # number of ReadReq accesses(hits+misses)
system.cpu.dcache.ReadReq_accesses::total         2180                       # number of ReadReq accesses(hits+misses)
system.cpu.dcache.ReadReq_miss_rate::.cpu.data     0.044037                       # miss rate for ReadReq accesses
system.cpu.dcache.ReadReq_miss_rate::total     0.044037                       # miss rate for ReadReq accesses
system.cpu.dcache.ReadReq_avg_miss_latency::.cpu.data 108510.416667                       # average ReadReq miss latency
system.cpu.dcache.ReadReq_avg_miss_latency::total 108510.416667                       # average ReadReq miss latency
system.cpu.dcache.ReadReq_mshr_hits::.cpu.data            1                       # number of ReadReq MSHR hits
system.cpu.dcache.ReadReq_mshr_hits::total            1                       # number of ReadReq MSHR hits
system.cpu.dcache.ReadReq_mshr_misses::.cpu.data           95                       # number of ReadReq MSHR misses
system.cpu.dcache.ReadReq_mshr_misses::total           95                       # number of ReadReq MSHR misses
system.cpu.dcache.ReadReq_mshr_miss_latency::.cpu.data     10132000                       # number of ReadReq MSHR miss cycles
system.cpu.dcache.ReadReq_mshr_miss_latency::total     10132000                       # number of ReadReq MSHR miss cycles
system.cpu.dcache.ReadReq_mshr_miss_rate::.cpu.data     0.043578                       # mshr miss rate for ReadReq accesses
system.cpu.dcache.ReadReq_mshr_miss_rate::total     0.043578                       # mshr miss rate for ReadReq accesses
system.cpu.dcache.ReadReq_avg_mshr_miss_latency::.cpu.data 106652.631579                       # average ReadReq mshr miss latency
system.cpu.dcache.ReadReq_avg_mshr_miss_latency::total 106652.631579                       # average ReadReq mshr miss latency
system.cpu.dcache.WriteReq_hits::.cpu.data         2205                       # number of WriteReq hits
system.cpu.dcache.WriteReq_hits::total           2205                       # number of WriteReq hits
system.cpu.dcache.WriteReq_misses::.cpu.data           70                       # number of WriteReq misses
system.cpu.dcache.WriteReq_misses::total           70                       # number of WriteReq misses
system.cpu.dcache.WriteReq_miss_latency::.cpu.data      7946000                       # number of WriteReq miss cycles
system.cpu.dcache.WriteReq_miss_latency::total      7946000                       # number of WriteReq miss cycles
system.cpu.dcache.WriteReq_accesses::.cpu.data         2275                       # number of WriteReq accesses(hits+misses)
system.cpu.dcache.WriteReq_accesses::total         2275                       # number of WriteReq accesses(hits+misses)
system.cpu.dcache.WriteReq_miss_rate::.cpu.data     0.030769                       # miss rate for WriteReq accesses
system.cpu.dcache.WriteReq_miss_rate::total     0.030769                       # miss rate for WriteReq accesses
system.cpu.dcache.WriteReq_avg_miss_latency::.cpu.data 113514.285714                       # average WriteReq miss latency
system.cpu.dcache.WriteReq_avg_miss_latency::total 113514.285714                       # average WriteReq miss latency
system.cpu.dcache.WriteReq_mshr_misses::.cpu.data           70                       # number of WriteReq MSHR misses
system.cpu.dcache.WriteReq_mshr_misses::total           70                       # number of WriteReq MSHR misses
system.cpu.dcache.WriteReq_mshr_miss_latency::.cpu.data      7806000                       # number of WriteReq MSHR miss cycles
system.cpu.dcache.WriteReq_mshr_miss_latency::total      7806000                       # number of WriteReq MSHR miss cycles
system.cpu.dcache.WriteReq_mshr_miss_rate::.cpu.data     0.030769                       # mshr miss rate for WriteReq accesses
system.cpu.dcache.WriteReq_mshr_miss_rate::total     0.030769                       # mshr miss rate for WriteReq accesses
system.cpu.dcache.WriteReq_avg_mshr_miss_latency::.cpu.data 111514.285714                       # average WriteReq mshr miss latency
system.cpu.dcache.WriteReq_avg_mshr_miss_latency::total 111514.285714                       # average WriteReq mshr miss latency
system.cpu.dcache.SoftPFReq_hits::.cpu.data           21                       # number of SoftPFReq hits
system.cpu.dcache.SoftPFReq_hits::total            21                       # number of SoftPFReq hits
system.cpu.dcache.SoftPFReq_misses::.cpu.data            8                       # number of SoftPFReq misses
system.cpu.dcache.SoftPFReq_misses::total            8                       # number of SoftPFReq misses
system.cpu.dcache.SoftPFReq_accesses::.cpu.data           29                       # number of SoftPFReq accesses(hits+misses)
system.cpu.dcache.SoftPFReq_accesses::total           29                       # number of SoftPFReq accesses(hits+misses)
system.cpu.dcache.SoftPFReq_miss_rate::.cpu.data     0.275862                       # miss rate for SoftPFReq accesses
system.cpu.dcache.SoftPFReq_miss_rate::total     0.275862                       # miss rate for SoftPFReq accesses
system.cpu.dcache.SoftPFReq_mshr_misses::.cpu.data            6                       # number of SoftPFReq MSHR misses
system.cpu.dcache.SoftPFReq_mshr_misses::total            6                       # number of SoftPFReq MSHR misses
system.cpu.dcache.SoftPFReq_mshr_miss_latency::.cpu.data       630000                       # number of SoftPFReq MSHR miss cycles
system.cpu.dcache.SoftPFReq_mshr_miss_latency::total       630000                       # number of SoftPFReq MSHR miss cycles
system.cpu.dcache.SoftPFReq_mshr_miss_rate::.cpu.data     0.206897                       # mshr miss rate for SoftPFReq accesses
system.cpu.dcache.SoftPFReq_mshr_miss_rate::total     0.206897                       # mshr miss rate for SoftPFReq accesses
system.cpu.dcache.SoftPFReq_avg_mshr_miss_latency::.cpu.data       105000                       # average SoftPFReq mshr miss latency
system.cpu.dcache.SoftPFReq_avg_mshr_miss_latency::total       105000                       # average SoftPFReq mshr miss latency
system.cpu.dcache.LoadLockedReq_hits::.cpu.data           36                       # number of LoadLockedReq hits
system.cpu.dcache.LoadLockedReq_hits::total           36                       # number of LoadLockedReq hits
system.cpu.dcache.LoadLockedReq_accesses::.cpu.data           36                       # number of LoadLockedReq accesses(hits+misses)
system.cpu.dcache.LoadLockedReq_accesses::total           36                       # number of LoadLockedReq accesses(hits+misses)
system.cpu.dcache.StoreCondReq_hits::.cpu.data           36                       # number of StoreCondReq hits
system.cpu.dcache.StoreCondReq_hits::total           36                       # number of StoreCondReq hits
system.cpu.dcache.StoreCondReq_accesses::.cpu.data           36                       # number of StoreCondReq accesses(hits+misses)
system.cpu.dcache.StoreCondReq_accesses::total           36                       # number of StoreCondReq accesses(hits+misses)
system.cpu.dcache.tags.pwrStateResidencyTicks::UNDEFINED     87785000                       # Cumulative time (in ticks) in various power states
system.cpu.dcache.tags.tagsinuse           106.223604                       # Cycle average of tags in use
system.cpu.dcache.tags.total_refs                4553                       # Total number of references to valid blocks.
system.cpu.dcache.tags.sampled_refs               171                       # Sample count of references to valid blocks.
system.cpu.dcache.tags.avg_refs             26.625731                       # Average number of references to valid blocks.
system.cpu.dcache.tags.warmup_cycle            240000                       # Cycle when the warmup percentage was hit.
system.cpu.dcache.tags.occ_blocks::.cpu.data   106.223604                       # Average occupied blocks per requestor
system.cpu.dcache.tags.occ_percent::.cpu.data     0.103734                       # Average percentage of cache occupancy
system.cpu.dcache.tags.occ_percent::total     0.103734                       # Average percentage of cache occupancy
system.cpu.dcache.tags.occ_task_id_blocks::1024          171                       # Occupied blocks per task id
system.cpu.dcache.tags.age_task_id_blocks_1024::0           12                       # Occupied blocks per task id
system.cpu.dcache.tags.age_task_id_blocks_1024::1          159                       # Occupied blocks per task id
system.cpu.dcache.tags.occ_task_id_percent::1024     0.166992                       # Percentage of cache occupancy per task id
system.cpu.dcache.tags.tag_accesses              9283                       # Number of tag accesses
system.cpu.dcache.tags.data_accesses             9283                       # Number of data accesses

---------- End Simulation Statistics   ----------
